Version 4
SHEET 1 1204 824
WIRE 464 -416 416 -416
WIRE 592 -416 544 -416
WIRE -336 -272 -368 -272
WIRE -224 -272 -272 -272
WIRE -112 -272 -144 -272
WIRE 0 -272 -32 -272
WIRE 112 -272 0 -272
WIRE -592 -256 -624 -256
WIRE -496 -256 -592 -256
WIRE -432 -256 -496 -256
WIRE 0 -256 0 -272
WIRE 224 -256 176 -256
WIRE 304 -256 224 -256
WIRE 416 -256 416 -416
WIRE 416 -256 384 -256
WIRE -592 -240 -592 -256
WIRE -272 -240 -272 -272
WIRE -272 -240 -368 -240
WIRE 112 -240 64 -240
WIRE -496 -224 -496 -256
WIRE -272 -224 -272 -240
WIRE 416 -224 416 -256
WIRE 448 -224 416 -224
WIRE 592 -208 592 -416
WIRE 592 -208 512 -208
WIRE 640 -208 592 -208
WIRE 704 -208 640 -208
WIRE 832 -208 784 -208
WIRE 896 -208 832 -208
WIRE 1008 -208 976 -208
WIRE 1104 -208 1008 -208
WIRE 448 -192 416 -192
WIRE 832 -192 832 -208
WIRE 1008 -192 1008 -208
WIRE 304 -176 272 -176
WIRE 416 -176 416 -192
WIRE 416 -176 384 -176
WIRE -592 -128 -592 -160
WIRE -496 -128 -496 -160
WIRE -496 -128 -592 -128
WIRE -416 -128 -496 -128
WIRE -272 -128 -272 -160
WIRE -272 -128 -416 -128
WIRE 416 -128 416 -176
WIRE 928 -128 832 -128
WIRE 1008 -128 928 -128
WIRE -416 -112 -416 -128
WIRE 272 -112 272 -176
WIRE 928 -112 928 -128
WIRE 64 -96 64 -240
WIRE 224 -96 224 -256
WIRE 224 -96 64 -96
FLAG -416 -112 0
FLAG -336 -272 0
FLAG 480 -176 0
FLAG 416 -48 0
FLAG 480 -320 0
FLAG 0 -176 0
FLAG 144 -288 0
FLAG 144 -144 0
FLAG 928 -112 0
FLAG 1104 -208 Out
IOPIN 1104 -208 Out
FLAG 272 48 0
FLAG 640 -208 In
IOPIN 640 -208 In
SYMBOL voltage -592 -256 R0
WINDOW 123 0 0 Left 0
WINDOW 39 0 0 Left 0
SYMATTR InstName V1
SYMATTR Value 9
SYMBOL AutoGenerated\\LM7805 -400 -256 R0
SYMATTR InstName U1
SYMBOL cap -512 -224 R0
SYMATTR InstName C1
SYMATTR Value 330n
SYMBOL cap -288 -224 R0
SYMATTR InstName C2
SYMATTR Value 100n
SYMBOL OpAmps\\opamp2 480 -272 R0
SYMATTR InstName U2
SYMATTR Value TLC2272
SYMBOL res 400 -272 R90
WINDOW 0 0 56 VBottom 2
WINDOW 3 32 56 VTop 2
SYMATTR InstName R1
SYMATTR Value 10k
SYMBOL res 400 -192 R90
WINDOW 0 0 56 VBottom 2
WINDOW 3 32 56 VTop 2
SYMATTR InstName R2
SYMATTR Value 10k
SYMBOL res 432 -32 R180
WINDOW 0 36 76 Left 2
WINDOW 3 36 40 Left 2
SYMATTR InstName Rg1
SYMATTR Value 100k
SYMBOL res 448 -400 R270
WINDOW 0 32 56 VTop 2
WINDOW 3 0 56 VBottom 2
SYMATTR InstName Rf1
SYMATTR Value 100k
SYMBOL voltage 480 -224 R180
WINDOW 0 24 96 Left 2
WINDOW 3 24 16 Left 2
WINDOW 123 0 0 Left 0
WINDOW 39 0 0 Left 0
SYMATTR InstName V2
SYMATTR Value 5
SYMBOL res -16 -288 R90
WINDOW 0 0 56 VBottom 2
WINDOW 3 32 56 VTop 2
SYMATTR InstName R3
SYMATTR Value 4671
SYMBOL res 16 -160 R180
WINDOW 0 48 63 Left 2
WINDOW 3 36 40 Left 2
SYMATTR InstName R4
SYMATTR Value 3.3k
SYMBOL voltage 272 -128 R0
WINDOW 123 0 0 Left 0
WINDOW 39 0 0 Left 0
SYMATTR InstName V4
SYMATTR Value 2.32
SYMBOL OpAmps\\opamp2 144 -192 M180
WINDOW 0 28 53 Left 2
WINDOW 3 40 92 Left 2
SYMATTR InstName U3
SYMATTR Value TL081
SYMBOL voltage 144 -240 R0
WINDOW 0 36 63 Left 2
WINDOW 123 0 0 Left 0
WINDOW 39 0 0 Left 0
SYMATTR InstName V5
SYMATTR Value 5
SYMBOL res 800 -224 R90
WINDOW 0 0 56 VBottom 2
WINDOW 3 32 56 VTop 2
SYMATTR InstName R5
SYMATTR Value 5k
SYMBOL res 992 -224 R90
WINDOW 0 0 56 VBottom 2
WINDOW 3 32 56 VTop 2
SYMATTR InstName R6
SYMATTR Value 7k
SYMBOL cap 816 -192 R0
SYMATTR InstName C3
SYMATTR Value 1µ
SYMBOL cap 992 -192 R0
SYMATTR InstName C4
SYMATTR Value 1µ
SYMBOL voltage 272 -48 R0
WINDOW 0 -69 21 Left 2
WINDOW 3 43 75 Left 2
WINDOW 123 45 103 Left 2
WINDOW 39 0 0 Left 0
SYMATTR InstName V3
SYMATTR Value SINE(0 50m 50)
SYMATTR Value2 AC 1
SYMBOL res -128 -288 R90
WINDOW 0 0 56 VBottom 2
WINDOW 3 32 56 VTop 2
SYMATTR InstName Rs
SYMATTR Value 0.001
TEXT -712 -320 Left 2 !.incl LM78XX_RS.LIB
TEXT 64 -408 Left 2 !.incl TL081.lib
TEXT 72 -368 Left 2 !.incl TLC2272.lib
TEXT -112 -120 Left 2 !;tran 1
TEXT -56 -8 Left 2 !.ac dec 100 1 100
