Version 4
SHEET 1 1824 680
WIRE -464 -1168 -512 -1168
WIRE -336 -1168 -384 -1168
WIRE -448 -1088 -1088 -1088
WIRE -1840 -1072 -1888 -1072
WIRE -2032 -1056 -2080 -1056
WIRE -1936 -1056 -1984 -1056
WIRE -1888 -1056 -1888 -1072
WIRE -1264 -1024 -1296 -1024
WIRE -1088 -1024 -1088 -1088
WIRE -1088 -1024 -1200 -1024
WIRE -1040 -1024 -1088 -1024
WIRE -928 -1024 -960 -1024
WIRE -816 -1024 -928 -1024
WIRE -1424 -1008 -1552 -1008
WIRE -1360 -1008 -1424 -1008
WIRE -928 -1008 -928 -1024
WIRE -704 -1008 -752 -1008
WIRE -624 -1008 -704 -1008
WIRE -512 -1008 -512 -1168
WIRE -512 -1008 -544 -1008
WIRE -1200 -992 -1200 -1024
WIRE -1200 -992 -1296 -992
WIRE -816 -992 -864 -992
WIRE -448 -992 -448 -1088
WIRE -2032 -976 -2032 -1056
WIRE -1984 -976 -2032 -976
WIRE -1936 -976 -1936 -1056
WIRE -1888 -976 -1936 -976
WIRE -1424 -976 -1424 -1008
WIRE -1200 -976 -1200 -992
WIRE -512 -976 -512 -1008
WIRE -480 -976 -512 -976
WIRE -2080 -960 -2080 -976
WIRE -336 -960 -336 -1168
WIRE -336 -960 -416 -960
WIRE -224 -960 -336 -960
WIRE -96 -960 -144 -960
WIRE -32 -960 -96 -960
WIRE 80 -960 48 -960
WIRE -480 -944 -512 -944
WIRE -96 -944 -96 -960
WIRE 80 -944 80 -960
WIRE -624 -928 -656 -928
WIRE -512 -928 -512 -944
WIRE -512 -928 -544 -928
WIRE -1424 -880 -1424 -912
WIRE -1344 -880 -1424 -880
WIRE -1200 -880 -1200 -912
WIRE -1200 -880 -1344 -880
WIRE -1088 -880 -1088 -1024
WIRE -784 -880 -784 -976
WIRE -784 -880 -1088 -880
WIRE -512 -880 -512 -928
WIRE 0 -880 -96 -880
WIRE 80 -880 0 -880
WIRE -1344 -864 -1344 -880
WIRE 0 -864 0 -880
WIRE -864 -848 -864 -992
WIRE -704 -848 -704 -1008
WIRE -704 -848 -864 -848
WIRE -2032 -768 -2096 -768
WIRE -656 -752 -656 -928
WIRE -2032 -720 -2032 -768
WIRE -1920 -720 -1952 -720
WIRE -1888 -608 -1936 -608
FLAG -2080 -960 0
FLAG -1840 -1072 Stimulus
FLAG -1920 -720 9V
IOPIN -1920 -720 Out
FLAG -2096 -688 0
FLAG -1888 -608 Vout
IOPIN -1888 -608 Out
FLAG -1344 -864 0
FLAG -1552 -1008 9V
IOPIN -1552 -1008 In
FLAG -1264 -1024 0
FLAG -448 -928 0
FLAG -512 -800 0
FLAG -928 -928 0
FLAG -784 -1040 0
FLAG 0 -864 0
FLAG 80 -960 Vout
IOPIN 80 -960 Out
FLAG -656 -752 Stimulus
IOPIN -656 -752 In
FLAG -544 -864 0
SYMBOL voltage -1984 -1072 R0
WINDOW 123 0 0 Left 0
WINDOW 39 0 0 Left 0
WINDOW 3 -89 197 Left 2
WINDOW 0 -13 54 Left 2
SYMATTR Value PWL file=PWLinput.csv
SYMATTR InstName V2
SYMBOL voltage -1888 -1072 R0
WINDOW 123 24 44 Left 2
WINDOW 39 0 0 Left 0
WINDOW 3 -386 233 Left 2
WINDOW 0 -11 56 Left 2
SYMATTR Value SINE({sineOffset} {sineAmplitude} {sineFreq})
SYMATTR InstName V3
SYMBOL voltage -2080 -1072 R0
WINDOW 123 0 0 Left 0
WINDOW 39 0 0 Left 0
WINDOW 3 3 160 Left 2
WINDOW 0 -13 55 Left 2
SYMATTR Value {dcAmplitude}
SYMATTR InstName V1
SYMBOL voltage -2096 -784 R0
WINDOW 123 24 44 Left 2
WINDOW 39 0 0 Left 0
WINDOW 3 -46 76 Left 2
WINDOW 0 -13 57 Left 2
SYMATTR Value 9
SYMATTR InstName V4
SYMBOL res -1936 -736 R90
WINDOW 0 -9 30 VBottom 2
WINDOW 3 34 56 VTop 2
SYMATTR InstName R_Sense
SYMATTR Value 0.010
SYMBOL AutoGenerated\\LM7805 -1328 -1008 R0
SYMATTR InstName U1
SYMBOL cap -1440 -976 R0
SYMATTR InstName C1
SYMATTR Value 330n
SYMBOL cap -1216 -976 R0
SYMATTR InstName C2
SYMATTR Value 100n
SYMBOL OpAmps\\opamp2 -448 -1024 R0
SYMATTR InstName U2
SYMATTR Value TLC2272
SYMBOL res -528 -1024 R90
WINDOW 0 0 56 VBottom 2
WINDOW 3 32 56 VTop 2
SYMATTR InstName R4
SYMATTR Value 10k
SYMBOL res -528 -944 R90
WINDOW 0 0 56 VBottom 2
WINDOW 3 32 56 VTop 2
SYMATTR InstName R5
SYMATTR Value 10k
SYMBOL res -496 -784 R180
WINDOW 0 36 76 Left 2
WINDOW 3 36 40 Left 2
SYMATTR InstName Rg1
SYMATTR Value 100k
SYMBOL res -480 -1152 R270
WINDOW 0 32 56 VTop 2
WINDOW 3 0 56 VBottom 2
SYMATTR InstName Rf1
SYMATTR Value 100k
SYMBOL res -944 -1040 R90
WINDOW 0 0 56 VBottom 2
WINDOW 3 32 56 VTop 2
SYMATTR InstName R6
SYMATTR Value 4671
SYMBOL res -912 -912 R180
WINDOW 0 48 63 Left 2
WINDOW 3 36 40 Left 2
SYMATTR InstName R7
SYMATTR Value 3.3k
SYMBOL OpAmps\\opamp2 -784 -944 M180
WINDOW 0 28 53 Left 2
WINDOW 3 40 92 Left 2
SYMATTR InstName U3
SYMATTR Value TL081
SYMBOL res -128 -976 R90
WINDOW 0 0 56 VBottom 2
WINDOW 3 32 56 VTop 2
SYMATTR InstName R8
SYMATTR Value 5k
SYMBOL res 64 -976 R90
WINDOW 0 0 56 VBottom 2
WINDOW 3 32 56 VTop 2
SYMATTR InstName R9
SYMATTR Value 7k
SYMBOL cap -112 -944 R0
SYMATTR InstName C3
SYMATTR Value 1µ
SYMBOL cap 64 -944 R0
SYMATTR InstName C4
SYMATTR Value 1µ
SYMBOL cap -560 -928 R0
SYMATTR InstName C5
SYMATTR Value 1µ
TEXT -2080 -1120 Left 2 !.tran 0 {transtop} 0 {timestep}
TEXT -1952 -1168 Left 2 !.include E344cfg.txt
TEXT -2288 -1384 Left 2 ;Don't change these -- used for auto-assessments.\nYou may modify input files while developing.\nFor submission: \n  * Use only 9V supply \n  * Connect "Stimulus" to your input\n  * Connect "Vout" to your output.\n  * Only one label name per net.
TEXT -2280 -1168 Left 2 ;Config file:
TEXT -2280 -1120 Left 2 ;Analysis setup:
TEXT -2272 -744 Left 2 ;Battery
TEXT -2280 -1032 Left 2 ;Sensor-\nemulating \nstimulus
TEXT -2272 -608 Left 2 ;Assessed nets:\nConnect to your outputs
TEXT -1552 -1400 Left 2 ;E. Gouws 21905541\nV(0degV) = 420 mV\ndeltaV/degV = 50 mV
TEXT -1640 -1072 Left 2 !.incl LM78XX_RS.LIB
TEXT -864 -1160 Left 2 !.incl TL081.lib
TEXT -856 -1120 Left 2 !.incl TLC2272.lib
LINE Normal -1792 -1008 -1856 -1008 2
LINE Normal -1792 -864 -1792 -1008 2
LINE Normal -1808 -880 -1792 -864 2
LINE Normal -1792 -864 -1808 -880 2
LINE Normal -1776 -880 -1792 -864 2
LINE Normal -2128 -1008 -2112 -1008 2
LINE Normal -2128 -928 -2128 -1008 2
LINE Normal -2128 -912 -2128 -928 2
LINE Normal -2096 -912 -2128 -912 2
LINE Normal -2112 -928 -2096 -912 2
LINE Normal -2096 -912 -2112 -928 2
LINE Normal -2112 -896 -2096 -912 2
LINE Normal -1968 -944 -1968 -992 2
LINE Normal -1856 -944 -1968 -944 2
LINE Normal -1856 -896 -1856 -944 2
LINE Normal -1872 -912 -1856 -896 2
LINE Normal -1856 -896 -1872 -912 2
LINE Normal -1840 -912 -1856 -896 2
LINE Normal -2304 -544 -2304 -1408 1
LINE Normal -1680 -1408 -1680 -544 1
LINE Normal -1680 -544 -2304 -544 1
LINE Normal -1680 -1408 -2304 -1408 1
