Version 4
SHEET 1 1380 680
WIRE 416 -160 384 -160
WIRE 560 -160 480 -160
WIRE 624 -160 560 -160
WIRE 160 -144 128 -144
WIRE 256 -144 160 -144
WIRE 320 -144 256 -144
WIRE 160 -128 160 -144
WIRE 480 -128 480 -160
WIRE 480 -128 384 -128
WIRE 256 -112 256 -144
WIRE 480 -112 480 -128
WIRE 560 -112 560 -160
WIRE 160 -16 160 -48
WIRE 256 -16 256 -48
WIRE 256 -16 160 -16
WIRE 336 -16 256 -16
WIRE 480 -16 480 -48
WIRE 480 -16 336 -16
WIRE 560 -16 560 -32
WIRE 560 -16 480 -16
WIRE 336 0 336 -16
WIRE 240 112 176 112
WIRE 400 112 304 112
WIRE 176 208 176 112
WIRE 176 208 128 208
WIRE 240 208 176 208
WIRE 400 208 400 112
WIRE 400 208 320 208
WIRE 704 208 400 208
WIRE 176 352 176 208
WIRE 224 352 176 352
WIRE 480 352 480 304
WIRE 480 352 432 352
WIRE 560 384 432 384
WIRE 592 384 560 384
WIRE 704 384 704 208
WIRE 704 384 672 384
WIRE 832 384 704 384
WIRE 80 416 64 416
WIRE 224 416 160 416
WIRE 480 416 432 416
WIRE 832 416 832 384
WIRE 64 432 64 416
WIRE 160 432 160 416
WIRE 560 432 560 384
WIRE 704 432 704 384
WIRE 64 528 64 512
WIRE 160 528 160 496
WIRE 160 528 64 528
WIRE 384 528 160 528
WIRE 480 528 480 416
WIRE 480 528 384 528
WIRE 560 528 560 496
WIRE 560 528 480 528
WIRE 704 528 704 496
WIRE 704 528 560 528
WIRE 832 528 832 496
WIRE 832 528 704 528
WIRE 384 560 384 528
FLAG 336 0 0
FLAG 64 416 IN
IOPIN 64 416 In
FLAG 624 -160 OUT
IOPIN 624 -160 Out
FLAG 416 -160 0
FLAG 480 304 0
FLAG 384 560 0
FLAG 48 208 0
SYMBOL voltage 160 -144 R0
WINDOW 123 0 0 Left 0
WINDOW 39 0 0 Left 0
SYMATTR InstName V1
SYMATTR Value 9
SYMBOL AutoGenerated\\LM7805 352 -144 R0
SYMATTR InstName U1
SYMBOL cap 240 -112 R0
SYMATTR InstName C1
SYMATTR Value 330n
SYMBOL cap 464 -112 R0
SYMATTR InstName C2
SYMATTR Value 100n
SYMBOL res 544 -128 R0
SYMATTR InstName Rload1
SYMATTR Value 50
SYMBOL AutoGenerated\\LM2595_ADJ_TRANS 320 384 R0
SYMATTR InstName U2
SYMBOL cap 688 432 R0
SYMATTR InstName C3
SYMATTR Value 220µ
SYMBOL ind 576 400 R270
WINDOW 0 32 56 VTop 2
WINDOW 3 5 56 VBottom 2
SYMATTR InstName L1
SYMATTR Value 47µ
SYMBOL cap 144 432 R0
SYMATTR InstName C4
SYMATTR Value 220
SYMBOL res 816 400 R0
SYMATTR InstName Rload
SYMATTR Value 50
SYMBOL voltage 64 416 R0
WINDOW 123 0 0 Left 0
WINDOW 39 0 0 Left 0
SYMATTR InstName V2
SYMATTR Value 9
SYMBOL res 336 192 R90
WINDOW 0 0 56 VBottom 2
WINDOW 3 32 56 VTop 2
SYMATTR InstName R2
SYMATTR Value 3.065k
SYMBOL res 144 192 R90
WINDOW 0 0 56 VBottom 2
WINDOW 3 32 56 VTop 2
SYMATTR InstName R1
SYMATTR Value 1k
SYMBOL cap 304 96 R90
WINDOW 0 0 32 VBottom 2
WINDOW 3 32 32 VTop 2
SYMATTR InstName C5
SYMATTR Value 10.525n
SYMBOL schottky 576 496 R180
WINDOW 0 24 64 Left 2
WINDOW 3 24 0 Left 2
SYMATTR InstName D1
SYMATTR Value 1N5819
SYMATTR Description Zener Diode
SYMATTR Type zener
SYMBOL res 176 400 R90
WINDOW 0 0 56 VBottom 2
WINDOW 3 32 56 VTop 2
SYMATTR InstName R3
SYMATTR Value 1
TEXT 40 -208 Left 2 !.incl LM78XX_RS.LIB
TEXT -96 24 Left 2 !.tran 3m
TEXT 800 -136 Left 2 !;step param Iload .2 1.2 .1
TEXT 792 -96 Left 2 !;tran 0 2.1m 2m startup
TEXT 816 -64 Left 2 !.meas Pin AVG -V(IN)*I(V2)\n.meas Pout AVG V(OUT)*I(Rload)\n.meas Eff param Pout/Pin
